Circuit: * C:\Users\aschultz\Documents\Linear\Software\LTspice\LTSpiceExamples\MODEL\LT6228 with JFET in TIA.asc

Direct Newton iteration for .op point succeeded.

Date: Wed Nov 28 05:03:34 2018
Total elapsed time: 0.077 seconds.

tnom = 27
temp = 27
method = trap
totiter = 8
traniter = 0
tranpoints = 0
accept = 0
rejected = 0
matrix size = 10
fillins = 3
solver = Normal
Matrix Compiler1:      38 opcodes
Matrix Compiler2: 946 bytes object code size
