Circuit: * C:\Users\aschultz\Documents\Linear\Software\LTspice\LTSpiceExamples\MonteCarlo\CMRR6375.asc

.step x=0
Direct Newton iteration failed to find .op point.  (Use ".option noopiter" to skip.)
Starting Gmin stepping
Gmin = 10
Gmin = 1.07374
Gmin = 0.115292
Gmin = 0.0123794
Gmin = 0.00132923
Gmin = 0.000142725
Gmin = 1.5325e-005
Gmin = 1.6455e-006
Gmin = 1.76685e-007
Gmin = 1.89714e-008
Gmin = 2.03704e-009
Gmin = 2.18725e-010
Gmin = 2.34854e-011
Gmin = 2.52173e-012
Gmin = 2.70769e-013
Gmin = 0
Gmin stepping succeeded in finding the operating point.

.step x=1
.step x=2
.step x=3
.step x=4
.step x=5
.step x=6
.step x=7
.step x=8
.step x=9
.step x=10
.step x=11
.step x=12
.step x=13
.step x=14
.step x=15
.step x=16
.step x=17
.step x=18
.step x=19
.step x=20
.step x=21
.step x=22
.step x=23
.step x=24
.step x=25

Date: Wed Nov 28 05:04:42 2018
Total elapsed time: 8.204 seconds.

tnom = 27
temp = 27
method = trap
totiter = 11352
traniter = 0
tranpoints = 0
accept = 0
rejected = 0
matrix size = 23
fillins = 16
solver = Normal
Matrix Compiler1:     115 opcodes  0.4/0.3/[0.1]
Matrix Compiler2: 2.68 KB object code size  0.5/0.5/[0.2]

