Circuit: * C:\Users\aschultz\Documents\Linear\Software\LTspice\LTSpiceExamples\OpenLoopResponse\ADA4522_AC_OpenLoopLOC.asc

Direct Newton iteration failed to find .op point.  (Use ".option noopiter" to skip.)
Starting Gmin stepping
Gmin = 10
Gmin = 1.07374
vernier = 0.5
vernier = 0.25
vernier = 0.125
Gmin = 1.02385
vernier = 0.0625
vernier = 0.03125
vernier = 0.015625
Gmin = 1.01955
vernier = 0.0078125
vernier = 0.00390625
Gmin = 1.01162
vernier = 0.00520833
vernier = 0.00260417
vernier = 0.00130208
Gmin = 1.00801
vernier = 0.00173611
vernier = 0.000868055
Gmin = 1.00593
vernier = 0.00115741
vernier = 0.000578703
vernier = 0.000771604
Gmin = 1.00452
vernier = 0.000578703
vernier = 0.000434027
Gmin = 1.00373
vernier = 0.000578703
vernier = 0.000434027
Gmin = 0
Gmin stepping failed

Starting source stepping with srcstepmethod=0
Source Step = 3.0303%
Source Step = 33.3333%
Source Step = 63.6364%
Source Step = 93.9394%
Source stepping succeeded in finding the operating point.


phasemargin: v(out)=(-0.00156556dB,-117.571°) at 1.32971e+006

Measurement "oc" FAIL'ed


Date: Wed Dec 12 17:14:27 2018
Total elapsed time: 0.202 seconds.

tnom = 27
temp = 27
method = trap
totiter = 5551
traniter = 0
tranpoints = 0
accept = 0
rejected = 0
matrix size = 69
fillins = 58
solver = Normal
Matrix Compiler1:     307 opcodes
Matrix Compiler2: off  [0.5]/0.8/0.6

