Circuit: * C:\Users\aschultz\Documents\Linear\Software\LTspice\LTSpiceExamples\TIA\6268d10 TIA.asc

WARNING: Less than two connections to node NC_01.  This node is used by T1.
WARNING: Less than two connections to node NC_02.  This node is used by T1.
Direct Newton iteration failed to find .op point.  (Use ".option noopiter" to skip.)
Starting Gmin stepping
Gmin = 10
Gmin = 1.07374
Gmin = 0.115292
Gmin = 0.0123794
Gmin = 0.00132923
Gmin = 0.000142725
Gmin = 1.5325e-005
Gmin = 1.6455e-006
vernier = 0.5
vernier = 0.25
vernier = 0.333333
Gmin = 1.12174e-006
vernier = 0.166667
vernier = 0.0833333
vernier = 0.111111
Gmin = 9.84507e-007
vernier = 0.148148
Gmin = 7.15734e-007
vernier = 0.197531
vernier = 0.263374
Gmin = 4.26848e-007
vernier = 0.351165
vernier = 0.46822
Gmin = 1.90478e-007
vernier = 0.624294
Gmin = 5.30328e-008
vernier = 0.832392
vernier = 1
Gmin = 7.55469e-009
Gmin = 8.11178e-010
Gmin = 8.70996e-011
Gmin = 9.35225e-012
Gmin = 1.00419e-012
Gmin = 1.07824e-013
Gmin = 0
Gmin stepping succeeded in finding the operating point.

.step cf=5e-013
.step cf=1e-012
.step cf=2.2e-012
.step cf=4.7e-012

Date: Wed Nov 28 05:03:00 2018
Total elapsed time: 0.313 seconds.

tnom = 27
temp = 27
method = trap
totiter = 980
traniter = 0
tranpoints = 0
accept = 0
rejected = 0
matrix size = 23
fillins = 11
solver = Normal
Matrix Compiler1:     103 opcodes
Matrix Compiler2: off  [0.3]/0.5/0.5

