Circuit: * C:\Users\aschultz\Documents\Linear\Software\LTspice\LTSpiceExamples\CurrentLimit\PosSupplyLimit.asc

Direct Newton iteration for .op point succeeded.

Date: Wed Oct 10 10:00:20 2018
Total elapsed time: 0.141 seconds.

tnom = 27
temp = 27
method = modified trap
totiter = 2159
traniter = 2147
tranpoints = 1071
accept = 1061
rejected = 10
matrix size = 13
fillins = 0
solver = Normal
Matrix Compiler1: 656 bytes object code size  0.2/0.1/[0.0]
Matrix Compiler2: off  [0.1]/0.2/0.2

