Circuit: * C:\Users\aschultz\Documents\Linear\Software\LTspice\LTSpiceExamples\DifferentialAmp\LTC6363_and_more.asc

Early termination of direct N-R iteration.
Direct Newton iteration failed to find .op point.  (Use ".option noopiter" to skip.)
Starting Gmin stepping
Gmin = 10
Gmin = 1.07374
Gmin = 0.115292
Gmin = 0.0123794
Gmin = 0.00132923
Gmin = 0.000142725
Gmin = 1.5325e-005
Gmin = 1.6455e-006
Gmin = 1.76685e-007
Gmin = 1.89714e-008
Gmin = 2.03704e-009
Gmin = 2.18725e-010
Gmin = 2.34854e-011
Gmin = 2.52173e-012
Gmin = 2.70769e-013
Gmin = 0
Gmin stepping succeeded in finding the operating point.


Date: Fri Dec 07 16:23:19 2018
Total elapsed time: 0.641 seconds.

tnom = 27
temp = 27
method = modified trap
totiter = 21810
traniter = 21448
tranpoints = 10200
accept = 10123
rejected = 77
matrix size = 33
fillins = 43
solver = Normal
Matrix Compiler1: 7.10 KB object code size  2.8/1.9/[0.9]
Matrix Compiler2: 4.22 KB object code size  0.4/0.5/[0.3]

