Circuit: * C:\Users\aschultz\Documents\Linear\Software\LTspice\LTSpiceExamples\DifferentialAmp\LTC6363.asc

WARNING: Less than two connections to node V+3.3.  This node is used by V2.
WARNING: Less than two connections to node V-8.  This node is used by V4.
Direct Newton iteration for .op point succeeded.

Date: Fri Dec 07 16:25:52 2018
Total elapsed time: 0.695 seconds.

tnom = 27
temp = 27
method = modified trap
totiter = 20832
traniter = 20824
tranpoints = 10270
accept = 10191
rejected = 79
matrix size = 39
fillins = 42
solver = Normal
Thread vector: 10.9/8.7[2] 2.6/2.3[2] 1.6/1.6[1] 0.2/0.9[1]  2592/500
Matrix Compiler1: 4.29 KB object code size  1.2/0.6/[0.2]
Matrix Compiler2: 4.45 KB object code size  0.5/0.7/[0.3]

