Circuit: * AD8610 SPICE Macro-model

Fatal Error: No analysis request found.
