Circuit: * C:\Users\aschultz\Documents\Linear\Software\LTspice\LTSpiceExamples\Comparator\OvercurrentDetectionTest.asc

WARNING: Node U13:N005 is floating.
WARNING: Node U11:N005 is floating.

Direct Newton iteration failed to find .op point.  (Use ".option noopiter" to skip.)
Starting Gmin stepping
Gmin = 10
vernier = 0.5
Gmin = 2.07126
vernier = 0.25
vernier = 0.125
Gmin = 1.48707
vernier = 0.166667
vernier = 0.0833333
vernier = 0.0416667
Gmin = 1.30089
vernier = 0.0555555
vernier = 0.0277778
Gmin = 1.21399
vernier = 0.037037
vernier = 0.0185185
vernier = 0.0246913
Gmin = 1.16013
vernier = 0.0123457
vernier = 0.0164609
Gmin = 1.1284
vernier = 0.00823044
vernier = 0.0109739
Gmin = 1.10772
vernier = 0.00548696
vernier = 0.00731595
Gmin = 1.09314
vernier = 0.00975459
vernier = 0.0048773
Gmin = 1.0799
vernier = 0.00650306
vernier = 0.00325153
vernier = 0.00433537
Gmin = 1.07189
vernier = 0.00578049
vernier = 0.00289025
Gmin = 1.06418
vernier = 0.00385366
vernier = 0.00192683
Gmin = 1.0583
vernier = 0.00256911
vernier = 0.00342548
vernier = 0.00171274
Gmin = 1.05327
vernier = 0.00228365
Gmin = 1.04787
vernier = 0.00304487
vernier = 0.00152243
vernier = 0.00202991
Gmin = 1.04429
vernier = 0.00101495
vernier = 0.00135327
Gmin = 1.04173
vernier = 0.00180436
vernier = 0.000902182
Gmin = 1.03939
vernier = 0.00120291
vernier = 0.00160388
vernier = 0.000801939
Gmin = 1.03707
vernier = 0.00106925
Gmin = 1.03458
vernier = 0.00142567
vernier = 0.000712834
vernier = 0.000950445
Gmin = 1.03292
vernier = 0.00126726
vernier = 0.00063363
Gmin = 1.03137
vernier = 0.00084484
vernier = 0.00112645
vernier = 0.000563226
Gmin = 1.02977
vernier = 0.000750968
vernier = 0.00100129
Gmin = 1.02792
vernier = 0.000500645
vernier = 0.000667527
Gmin = 1.02685
vernier = 0.000890036
vernier = 0.000445018
vernier = 0.000593357
Gmin = 1.02579
vernier = 0.000791143
vernier = 0.000593357
Gmin = 1.02457
vernier = 0.000791143
vernier = 0.000593357
vernier = 0.000791142
Gmin = 1.0233
vernier = 0.000593357
vernier = 0.000445018
vernier = 0.000593357
Gmin = 1.02263
vernier = 0.000445017
vernier = 0.000593356
vernier = 0.000445017
Gmin = 1.02199
vernier = 0.000593356
vernier = 0.000445017
Gmin = 1.02108
vernier = 0.000593356
vernier = 0.000445017
vernier = 0.000593356
vernier = 0.000445017
Gmin = 1.0204
Gmin = 0
Gmin stepping failed

Starting source stepping with srcstepmethod=0
Source Step = 3.0303%
Source Step = 33.3333%
Source Step = 63.6364%
Source Step = 93.9394%
Source stepping succeeded in finding the operating point.




Date: Mon Aug 06 09:00:25 2018
Total elapsed time: 15.458 seconds.

tnom = 27
temp = 27
method = modified trap
totiter = 60067
traniter = 37550
tranpoints = 9856
accept = 7367
rejected = 2489
matrix size = 405
fillins = 378
solver = Normal
Thread vector: 63.6/26.4[4] 17.3/13.7[4] 17.0/10.5[4] 1.8/2.5[1]  2592/500
Matrix Compiler1: 28.27 KB object code size  12.0/4.6/[2.0]
Matrix Compiler2: 35.67 KB object code size  8.2/8.7/[2.9]

